/*--------------------------------*- C++ -*----------------------------------*\
| =========                 |                                                 |
| \\      /  F ield         | OpenFOAM: The Open Source CFD Toolbox           |
|  \\    /   O peration     | Version:  2.3.1                                 |
|   \\  /    A nd           | Web:      www.OpenFOAM.org                      |
|    \\/     M anipulation  |                                                 |
\*---------------------------------------------------------------------------*/
FoamFile
{
    version     2.0;
    format      ascii;
    class       dictionary;
    object      topoSetDict;
}
// * * * * * * * * * * * * * * * * * * * * * * * * * * * * * * * * * * * * * //
#include        "ports/portscoords"

actions
(
    {
        name    percells;
        type    faceSet;
        action  new;
        source  patchToFace;
        sourceInfo
        {
            name "inlet";
	    name "outlet";
        }
    }

    {
        name    periodic;
        type    cellSet;
        action  new;
        source  faceToCell;
        sourceInfo
        {
            set     percells;
            option  any;
        }
    }
    //select baffle 1 cells
    {
        name    baffle1;
        type    cellSet;
        action  new;
        source  boxToCell;
        sourceInfo
        {
            box (0.12 0.03 0) (0.127 0.18 0.23);
        }
    }

    //select baffle 2 cells
    {
        name    baffle1;
        type    cellSet;
        action  add;
        source  boxToCell;
        sourceInfo
        {
            box (0.24 0.03 0) (0.247 0.18 0.23);
        }
    }

    //select baffle 3 cells
    {
        name    baffle1;
        type    cellSet;
        action  add;
        source  boxToCell;
        sourceInfo
        {
            box (0.36 0.03 0) (0.367 0.18 0.23);
        }
    }
    
    //port 1
    {
        name    baffle1;
        type    cellSet;
        action  delete;
        source  boxToCell;
        sourceInfo
        {
            box (0.12 $y11 $z11) (0.127 $y12 $z12);
        }
    }

    //port 2
    {
        name    baffle1;
        type    cellSet;
        action  delete;
        source  boxToCell;
        sourceInfo
        {
            box (0.12 $y21 $z21) (0.127 $y22 $z22);
        }
    }

    //port 3
    {
        name    baffle1;
        type    cellSet;
        action  delete;
        source  boxToCell;
        sourceInfo
        {
            box (0.12 $y31 $z31) (0.127 $y32 $z32);
        }
    }

    //port 4
    {
        name    baffle1;
        type    cellSet;
        action  delete;
        source  boxToCell;
        sourceInfo
        {
            box (0.24 $y11 $z11) (0.247 $y12 $z12);
        }
    }

    //port 5
    {
        name    baffle1;
        type    cellSet;
        action  delete;
        source  boxToCell;
        sourceInfo
        {
            box (0.24 $y21 $z21) (0.247 $y22 $z22);
        }
    }

    //port 6
    {
        name    baffle1;
        type    cellSet;
        action  delete;
        source  boxToCell;
        sourceInfo
        {
            box (0.24 $y31 $z31) (0.247 $y32 $z32);
        }
    }

    //port 7
    {
        name    baffle1;
        type    cellSet;
        action  delete;
        source  boxToCell;
        sourceInfo
        {
            box (0.36 $y11 $z11) (0.367 $y12 $z12);
        }
    }

    //port 8
    {
        name    baffle1;
        type    cellSet;
        action  delete;
        source  boxToCell;
        sourceInfo
        {
            box (0.36 $y21 $z21) (0.367 $y22 $z22);
        }
    }

    //port 9
    {
        name    baffle1;
        type    cellSet;
        action  delete;
        source  boxToCell;
        sourceInfo
        {
            box (0.36 $y31 $z31) (0.367 $y32 $z32);
        }
    }

    {
        name    baffle1;
        type    cellSet;
        action  invert;
    }

    
);

// ************************************************************************* //
