/*--------------------------------*- C++ -*----------------------------------*\
| =========                 |                                                 |
| \\      /  F ield         | OpenFOAM: The Open Source CFD Toolbox           |
|  \\    /   O peration     | Version:  2.3.1                                 |
|   \\  /    A nd           | Web:      www.OpenFOAM.org                      |
|    \\/     M anipulation  |                                                 |
\*---------------------------------------------------------------------------*/
FoamFile
{
    version     2.0;
    format      ascii;
    class       dictionary;
    object      changeDictionaryDict1;
}
// * * * * * * * * * * * * * * * * * * * * * * * * * * * * * * * * * * * * * //



    C
    {

        boundaryField
        {
	    inlet
    	    {
        	type            fixedValue;
        	value           uniform 0;
    	    }

        }
    }

    C_0
    {

        boundaryField
        {
	    inlet
    	    {
        	type            fixedValue;
        	value           uniform 0;
    	    }

        }
    }

    
// ************************************************************************* //
