/*--------------------------------*- C++ -*----------------------------------*\
| =========                 |                                                 |
| \\      /  F ield         | OpenFOAM: The Open Source CFD Toolbox           |
|  \\    /   O peration     | Version:  2.3.1                                 |
|   \\  /    A nd           | Web:      www.OpenFOAM.org                      |
|    \\/     M anipulation  |                                                 |
\*---------------------------------------------------------------------------*/
FoamFile
{
    version     2.0;
    format      ascii;
    class       dictionary;
    object      topoSetDict;
}
// * * * * * * * * * * * * * * * * * * * * * * * * * * * * * * * * * * * * * //

actions
(

    {
    	name    ChamberOut;
    	type    cellSet;
    	action  new;
    	source  boxToCell;
    	sourceInfo
    	{
      		box (0.480 0 0) (0.481 0.03 0.23);
    	}
    }

    {
        name    ChamberOut;
        type    cellZoneSet;
        action  new;
        source  setToCellZone;
        sourceInfo
        {
            set ChamberOut;           // name of cellSet
        }
    }
   
);

// ************************************************************************* //
