/*--------------------------------*- C++ -*----------------------------------*\
| =========                 |                                                 |
| \\      /  F ield         | OpenFOAM: The Open Source CFD Toolbox           |
|  \\    /   O peration     | Version:  2.3.1                                 |
|   \\  /    A nd           | Web:      www.OpenFOAM.org                      |
|    \\/     M anipulation  |                                                 |
\*---------------------------------------------------------------------------*/
FoamFile
{
    version     2.0;
    format      ascii;
    class       dictionary;
    location    "system";
    object      fvSolution;
}
// * * * * * * * * * * * * * * * * * * * * * * * * * * * * * * * * * * * * * //

solvers
{
    p
     {
         solver           GAMG;
         tolerance        1e-12;
         relTol           0.001;
         minIter          5;
         maxIter          200;
         smoother         GaussSeidel; // DIC; //DICGaussSeidel; //FDIC;
         nPreSweeps       1;
         nPostSweeps      3;
         nFinestSweeps    3;
         scaleCorrection true;
         directSolveCoarsest false;
         cacheAgglomeration on;
         nCellsInCoarsestLevel 50;    // 500
         agglomerator     faceAreaPair;
         mergeLevels      1;    // 3
     }

    U
     {
         solver          PBiCG;
         preconditioner  DILU;
         tolerance       1e-09;
         relTol          0.1;
     }
 
     k
     {
         solver          PBiCG;
         preconditioner  DILU;
         tolerance       1e-09;
         relTol          0.1;
     }
 
     epsilon
     {
         solver          PBiCG;
         preconditioner  DILU;
         tolerance       1e-09;
         relTol          0.1;
     }
 
     R
     {
         solver          PBiCG;
         preconditioner  DILU;
         tolerance       1e-05;
         relTol          0.1;
     }
 
     nuTilda
     {
         solver          PBiCG;
         preconditioner  DILU;
         tolerance       1e-05;
         relTol          0.1;
     }
}

 
 SIMPLE
 {
     nNonOrthogonalCorrectors 0;
     residualControl
    {
        p               1e-3;
        U               1e-4;
        "(k|epsilon|omega)" 1e-4;
    }
     pRefPoint (0 0 0);
     pRefValue 0;
 }
 
relaxationFactors
{
    fields
    {
        p               0.3;
    }
    equations
    {
        U               0.7;
        k               0.7;
        epsilon         0.7;
        R               0.7;
        nuTilda         0.7;
    }
}
// ************************************************************************* //
